examples/feeders/1_ALPE_1/000_master.dss
Clear
Redirect 001_circuito.dss
Redirect 002_condutores.dss
Redirect 003_curvaCargaBT.dss
Redirect 003_curvaCargaMT.dss
Redirect 004_chavesMT.dss
Redirect 005_segmentoMT.dss
Redirect 006_reguladorMT.dss
Redirect 007_transformadores.dss
Redirect 008_segmentoBT.dss
Redirect 009_segmentoRamalBT.dss
Redirect 010_energyMeters.dss
Redirect 011_tensaoBase.dss
Redirect 012_cargasBT_1_1.dss
Redirect 012_cargasMT_1_1.dss


Set mode = daily
Solve
