examples/feeders/1_ALPE_1/008_segmentoBT.dss
New Line.SBT_31627 phases=2 bus1=ET25_1733.1.4 bus2=BT343122.1.4 linecode=60_2 length=0.04885 units=km
New Line.SBT_2704 phases=4 bus1=BT184711.1.2.3.4 bus2=BT345781.1.2.3.4 linecode=73_4 length=0.05803 units=km
New Line.SBT_28743 phases=4 bus1=BT345781.1.2.3.4 bus2=BT345791.1.2.3.4 linecode=73_4 length=0.04743 units=km
New Line.SBT_3585 phases=4 bus1=ET4_10.1.2.3.4 bus2=BT331351.1.2.3.4 linecode=73_4 length=0.08684 units=km
New Line.SBT_3708 phases=4 bus1=BT184721.1.2.3.4 bus2=BT184711.1.2.3.4 linecode=73_4 length=0.04418 units=km
New Line.SBT_15592 phases=4 bus1=BT184721.1.2.3.4 bus2=BT644491.1.2.3.4 linecode=97_4 length=0.03321 units=km
New Line.SBT_16421 phases=4 bus1=BT184731.1.2.3.4 bus2=BT200471.1.2.3.4 linecode=97_4 length=0.01 units=km
New Line.SBT_20553 phases=4 bus1=ET4_10.1.2.3.4 bus2=BT184731.1.2.3.4 linecode=97_4 length=0.08709 units=km
New Line.SBT_21003 phases=4 bus1=BT200471.1.2.3.4 bus2=BT184721.1.2.3.4 linecode=97_4 length=0.03025 units=km
New Line.SBT_16219 phases=3 bus1=BT86191.1.2.4 bus2=BT706511.1.2.4 linecode=44_3 length=0.05 units=km
New Line.SBT_13011 phases=3 bus1=BT86201.1.2.4 bus2=BT610291.1.2.4 linecode=44_3 length=0.04105 units=km
New Line.SBT_21358 phases=3 bus1=ET4_1295.1.2.4 bus2=BT103651.1.2.4 linecode=44_3 length=0.11125 units=km
New Line.SBT_21359 phases=2 bus1=ET4_1295.1.4 bus2=BT103661.1.4 linecode=60_2 length=0.20459 units=km
New Line.SBT_28702 phases=3 bus1=BT103671.1.2.4 bus2=BT86191.1.2.4 linecode=44_3 length=0.1044 units=km
New Line.SBT_4727 phases=3 bus1=ET4_1295.1.2.4 bus2=BT103671.1.2.4 linecode=44_3 length=0.117 units=km
New Line.SBT_5009 phases=3 bus1=BT103671.1.2.4 bus2=BT103681.1.2.4 linecode=44_3 length=0.08633 units=km
New Line.SBT_5023 phases=3 bus1=BT86191.1.2.4 bus2=BT86201.1.2.4 linecode=44_3 length=0.13697 units=km
New Line.SBT_5024 phases=2 bus1=BT86271.1.4 bus2=BT86281.1.4 linecode=60_2 length=0.07267 units=km
New Line.SBT_5025 phases=3 bus1=ET4_1296.1.2.4 bus2=BT86271.1.2.4 linecode=44_3 length=0.03614 units=km
New Line.SBT_4966 phases=3 bus1=ET4_1296.1.2.4 bus2=BT86251.1.2.4 linecode=44_3 length=0.05609 units=km
New Line.SBT_4968 phases=2 bus1=BT122461.2.4 bus2=BT122471.2.4 linecode=60_2 length=0.08476 units=km
New Line.SBT_4360 phases=3 bus1=BT86221.1.2.4 bus2=BT86211.1.2.4 linecode=44_3 length=0.08287 units=km
New Line.SBT_4365 phases=3 bus1=BT122501.1.2.4 bus2=BT122511.1.2.4 linecode=44_3 length=0.10072 units=km
New Line.SBT_4366 phases=3 bus1=BT122511.1.2.4 bus2=BT122521.1.2.4 linecode=44_3 length=0.05532 units=km
New Line.SBT_4367 phases=3 bus1=BT86211.1.2.4 bus2=BT99951.1.2.4 linecode=44_3 length=0.14073 units=km
New Line.SBT_4368 phases=2 bus1=BT122521.1.4 bus2=BT122531.1.4 linecode=60_2 length=0.26715 units=km
New Line.SBT_4544 phases=3 bus1=BT86231.1.2.4 bus2=BT86221.1.2.4 linecode=44_3 length=0.09043 units=km
New Line.SBT_4637 phases=3 bus1=BT122491.1.2.4 bus2=BT122501.1.2.4 linecode=44_3 length=0.06147 units=km
New Line.SBT_4638 phases=2 bus1=BT122471.2.4 bus2=BT122481.2.4 linecode=60_2 length=0.07569 units=km
New Line.SBT_21337 phases=3 bus1=BT86271.1.2.4 bus2=BT122461.1.2.4 linecode=44_3 length=0.17053 units=km
New Line.SBT_21338 phases=3 bus1=BT122461.1.2.4 bus2=BT122491.1.2.4 linecode=44_3 length=0.05281 units=km
New Line.SBT_21339 phases=3 bus1=BT86251.1.2.4 bus2=BT86231.1.2.4 linecode=44_3 length=0.10066 units=km
New Line.SBT_21096 phases=2 bus1=BT86281.1.4 bus2=BT86291.1.4 linecode=60_2 length=0.10234 units=km
New Line.SBT_21118 phases=4 bus1=ET4_1399.1.2.3.4 bus2=BT331291.1.2.3.4 linecode=97_4 length=0.05745 units=km
New Line.SBT_20995 phases=4 bus1=ET4_1399.1.2.3.4 bus2=BT749121.1.2.3.4 linecode=97_4 length=0.02 units=km
New Line.SBT_20551 phases=4 bus1=BT331141.1.2.3.4 bus2=BT331151.1.2.3.4 linecode=73_4 length=0.05515 units=km
New Line.SBT_20552 phases=4 bus1=BT331161.1.2.3.4 bus2=BT331172.1.2.3.4 linecode=73_4 length=0.03314 units=km
New Line.SBT_14860 phases=4 bus1=BT331151.1.2.3.4 bus2=BT331161.1.2.3.4 linecode=73_4 length=0.03202 units=km
New Line.SBT_26417 phases=4 bus1=BT331251.1.2.3.4 bus2=BT243351.1.2.3.4 linecode=73_4 length=0.08914 units=km
New Line.SBT_4587 phases=4 bus1=BT331261.1.2.3.4 bus2=BT331271.1.2.3.4 linecode=97_4 length=0.04851 units=km
New Line.SBT_4369 phases=4 bus1=ET4_1399.1.2.3.4 bus2=BT331141.1.2.3.4 linecode=73_4 length=0.04518 units=km
New Line.SBT_29223 phases=4 bus1=BT749121.1.2.3.4 bus2=BT331261.1.2.3.4 linecode=97_4 length=0.01544 units=km
New Line.SBT_31407 phases=4 bus1=BT331261.1.2.3.4 bus2=BT769681.1.2.3.4 linecode=141_4 length=0.02542 units=km
New Line.SBT_31408 phases=4 bus1=BT769681.1.2.3.4 bus2=BT769691.1.2.3.4 linecode=141_4 length=0.03268 units=km
New Line.SBT_31409 phases=4 bus1=BT769691.1.2.3.4 bus2=BT769701.1.2.3.4 linecode=141_4 length=0.03252 units=km
New Line.SBT_31410 phases=4 bus1=BT769701.1.2.3.4 bus2=BT769711.1.2.3.4 linecode=141_4 length=0.03233 units=km
New Line.SBT_31411 phases=4 bus1=BT769711.1.2.3.4 bus2=BT769721.1.2.3.4 linecode=141_4 length=0.03284 units=km
New Line.SBT_31412 phases=4 bus1=BT769721.1.2.3.4 bus2=BT769731.1.2.3.4 linecode=141_4 length=0.03255 units=km
New Line.SBT_3582 phases=4 bus1=BT331271.1.2.3.4 bus2=BT331251.1.2.3.4 linecode=97_4 length=0.05657 units=km
New Line.SBT_3583 phases=3 bus1=ET4_1400.1.2.4 bus2=BT440501.1.2.4 linecode=59_3 length=0.13559 units=km
New Line.SBT_4387 phases=3 bus1=BT440501.1.2.4 bus2=BT440511.1.2.4 linecode=59_3 length=0.04809 units=km
New Line.SBT_31625 phases=2 bus1=ET4_1446.2.4 bus2=BT97751.2.4 linecode=60_2 length=0.08272 units=km
New Line.SBT_31634 phases=2 bus1=ET4_1446.2.4 bus2=BT771321.2.4 linecode=60_2 length=0.12344 units=km
New Line.SBT_31633 phases=2 bus1=ET4_1447.1.4 bus2=BT771301.1.4 linecode=62_2 length=0.05622 units=km
New Line.SBT_36185 phases=2 bus1=BT816391.1.4 bus2=BT97701.1.4 linecode=60_2 length=0.11263 units=km
New Line.SBT_36186 phases=2 bus1=BT97701.1.4 bus2=BT97711.1.4 linecode=60_2 length=0.13107 units=km
New Line.SBT_36187 phases=2 bus1=BT97691.1.4 bus2=BT816391.1.4 linecode=60_2 length=0.03189 units=km
New Line.SBT_4400 phases=3 bus1=BT97681.1.2.4 bus2=BT97691.1.2.4 linecode=44_3 length=0.06306 units=km
New Line.SBT_20562 phases=3 bus1=ET4_1447.1.2.4 bus2=BT97681.1.2.4 linecode=44_3 length=0.03397 units=km
New Line.SBT_21015 phases=2 bus1=BT97711.1.4 bus2=BT97721.1.4 linecode=60_2 length=0.10989 units=km
New Line.SBT_20559 phases=2 bus1=BT630811.1.4 bus2=BT97871.1.4 linecode=60_2 length=0.24798 units=km
New Line.SBT_18287 phases=3 bus1=ET4_1448.1.2.4 bus2=BT97861.1.2.4 linecode=44_3 length=0.06661 units=km
New Line.SBT_13417 phases=2 bus1=BT97861.1.4 bus2=BT630811.1.4 linecode=60_2 length=0.12155 units=km
New Line.SBT_20565 phases=4 bus1=ET4_1753.1.2.3.4 bus2=BT345681.1.2.3.4 linecode=97_4 length=0.00854 units=km
New Line.SBT_20566 phases=4 bus1=ET4_1753.1.2.3.4 bus2=BT331371.1.2.3.4 linecode=97_4 length=0.09202 units=km
New Line.SBT_23522 phases=2 bus1=BT345751.2.4 bus2=BT345761.2.4 linecode=60_2 length=0.19166 units=km
New Line.SBT_3608 phases=4 bus1=ET4_1753.1.2.3.4 bus2=BT345721.1.2.3.4 linecode=97_4 length=0.01334 units=km
New Line.SBT_3609 phases=4 bus1=BT331371.1.2.3.4 bus2=BT304161.1.2.3.4 linecode=97_4 length=0.08205 units=km
New Line.SBT_3610 phases=4 bus1=BT345681.1.2.3.4 bus2=BT345691.1.2.3.4 linecode=97_4 length=0.04827 units=km
New Line.SBT_8778 phases=3 bus1=BT345741.1.2.4 bus2=BT345751.1.2.4 linecode=44_3 length=0.08688 units=km
New Line.SBT_8779 phases=4 bus1=BT345731.1.2.3.4 bus2=BT345741.1.2.3.4 linecode=97_4 length=0.08005 units=km
New Line.SBT_8780 phases=4 bus1=BT345721.1.2.3.4 bus2=BT345731.1.2.3.4 linecode=97_4 length=0.16072 units=km
New Line.SBT_9625 phases=4 bus1=BT345731.1.2.3.4 bus2=BT345771.1.2.3.4 linecode=97_4 length=0.06986 units=km
New Line.SBT_6595 phases=2 bus1=ET4_1985.1.4 bus2=BT118481.1.4 linecode=60_2 length=0.06831 units=km
New Line.SBT_5392 phases=3 bus1=ET4_2444.1.2.4 bus2=BT360561.1.2.4 linecode=59_3 length=0.117 units=km
New Line.SBT_5202 phases=4 bus1=BT331181.1.2.3.4 bus2=BT331171.1.2.3.4 linecode=97_4 length=0.05457 units=km
New Line.SBT_35226 phases=4 bus1=BT808541.1.2.3.4 bus2=BT331181.1.2.3.4 linecode=97_4 length=0.03338 units=km
New Line.SBT_35227 phases=4 bus1=BT331201.1.2.3.4 bus2=BT808541.1.2.3.4 linecode=97_4 length=0.03446 units=km
New Line.SBT_33734 phases=4 bus1=BT539651.1.2.3.4 bus2=BT349121.1.2.3.4 linecode=16_4 length=0.02138 units=km
New Line.SBT_33735 phases=4 bus1=BT659691.1.2.3.4 bus2=BT539651.1.2.3.4 linecode=75_4 length=0.02396 units=km
New Line.SBT_33737 phases=3 bus1=BT794131.1.2.4 bus2=BT620091.1.2.4 linecode=59_3 length=0.05745 units=km
New Line.SBT_33738 phases=4 bus1=ET4_2715.1.2.3.4 bus2=BT659691.1.2.3.4 linecode=16_4 length=0.00399 units=km
New Line.SBT_33739 phases=3 bus1=BT620071.1.2.4 bus2=BT794121.1.2.4 linecode=59_3 length=0.08294 units=km
New Line.SBT_33740 phases=3 bus1=BT794121.1.2.4 bus2=BT794131.1.2.4 linecode=59_3 length=0.02804 units=km
New Line.SBT_31253 phases=3 bus1=BT331201.1.2.4 bus2=BT331211.1.2.4 linecode=44_3 length=0.02335 units=km
New Line.SBT_27322 phases=4 bus1=BT539671.1.2.3.4 bus2=BT539681.1.2.3.4 linecode=75_4 length=0.05807 units=km
New Line.SBT_27323 phases=4 bus1=BT659691.1.2.3.4 bus2=BT539701.1.2.3.4 linecode=75_4 length=0.05107 units=km
New Line.SBT_27324 phases=2 bus1=BT539701.1.4 bus2=BT349131.1.4 linecode=62_2 length=0.0364 units=km
New Line.SBT_27326 phases=3 bus1=BT620091.1.2.4 bus2=BT620101.1.2.4 linecode=59_3 length=0.10073 units=km
New Line.SBT_21312 phases=4 bus1=BT349121.1.2.3.4 bus2=BT331201.1.2.3.4 linecode=73_4 length=0.04115 units=km
New Line.SBT_15594 phases=4 bus1=ET4_2715.1.2.3.4 bus2=BT539671.1.2.3.4 linecode=75_4 length=0.05803 units=km
New Line.SBT_15595 phases=4 bus1=BT539681.1.2.3.4 bus2=BT539691.1.2.3.4 linecode=75_4 length=0.04219 units=km
New Line.SBT_15597 phases=4 bus1=BT659691.1.2.3.4 bus2=BT659671.1.2.3.4 linecode=75_4 length=0.01243 units=km
New Line.SBT_15598 phases=4 bus1=BT539701.1.2.3.4 bus2=BT620061.1.2.3.4 linecode=73_4 length=0.06708 units=km
New Line.SBT_15599 phases=4 bus1=BT620061.1.2.3.4 bus2=BT620071.1.2.3.4 linecode=73_4 length=0.04589 units=km
New Line.SBT_21994 phases=2 bus1=ET4_2894.1.4 bus2=BT312851.1.4 linecode=60_2 length=0.06676 units=km
...