examples/feeders/1_ALPE_1/012_cargasBT_1_1.dss
New Load.BT_2519178_M1 bus1=UC2519178.1.4 phases=1 conn=Wye model=2 kv=0.22 kw=0.157969 pf=0.92 daily=RU1_DU status=variable vmaxpu=1.5 vminpu=0.92
New Load.BT_2519178_M2 bus1=UC2519178.1.4 phases=1 conn=Wye model=3 kv=0.22 kw=0.157969 pf=0.92 daily=RU1_DU status=variable vmaxpu=1.5 vminpu=0.92
New Load.BT_2533903_M1 bus1=UC2533903.1.4 phases=1 conn=Wye model=2 kv=0.22 kw=0 pf=0.92 daily=RU3_DU status=variable vmaxpu=1.5 vminpu=0.92
New Load.BT_2533903_M2 bus1=UC2533903.1.4 phases=1 conn=Wye model=3 kv=0.22 kw=0 pf=0.92 daily=RU3_DU status=variable vmaxpu=1.5 vminpu=0.92
New Load.BT_2534183_M1 bus1=UC2534183.1.2 phases=3 conn=Delta model=2 kv=13.8 kw=1.59486 pf=0.92 daily=PP2_DU status=variable vmaxpu=1.5 vminpu=0.92
New Load.BT_2534183_M2 bus1=UC2534183.1.2.3.4 phases=3 conn=Delta model=3 kv=13.8 kw=1.59486 pf=0.92 daily=PP2_DU status=variable vmaxpu=1.5 vminpu=0.92
New Load.BT_2531956_M1 bus1=UC2531956.1.4 phases=1 conn=Wye model=2 kv=0.22 kw=0.451341 pf=0.92 daily=RU1_DU status=variable vmaxpu=1.5 vminpu=0.92
New Load.BT_2531956_M2 bus1=UC2531956.1.4 phases=1 conn=Wye model=3 kv=0.22 kw=0.451341 pf=0.92 daily=RU1_DU status=variable vmaxpu=1.5 vminpu=0.92
New Load.BT_2538561_M1 bus1=UC2538561.1.4 phases=1 conn=Wye model=2 kv=0.22 kw=0.2724025 pf=0.92 daily=RE5_DU status=variable vmaxpu=1.5 vminpu=0.92
New Load.BT_2538561_M2 bus1=UC2538561.1.4 phases=1 conn=Wye model=3 kv=0.22 kw=0.2724025 pf=0.92 daily=RE5_DU status=variable vmaxpu=1.5 vminpu=0.92
New Load.BT_413703_M1 bus1=UC413703.3.4 phases=1 conn=Wye model=2 kv=0.219393102 kw=0.1006315 pf=0.92 daily=RU3_DU status=variable vmaxpu=1.5 vminpu=0.92
New Load.BT_413703_M2 bus1=UC413703.3.4 phases=1 conn=Wye model=3 kv=0.219393102 kw=0.1006315 pf=0.92 daily=RU3_DU status=variable vmaxpu=1.5 vminpu=0.92
New Load.BT_413704_M1 bus1=UC413704.2.4 phases=1 conn=Wye model=2 kv=0.219393102 kw=0.064432 pf=0.92 daily=RU6_DU status=variable vmaxpu=1.5 vminpu=0.92
New Load.BT_413704_M2 bus1=UC413704.2.4 phases=1 conn=Wye model=3 kv=0.219393102 kw=0.064432 pf=0.92 daily=RU6_DU status=variable vmaxpu=1.5 vminpu=0.92
New Load.BT_413706_M1 bus1=UC413706.1.2.3.4 phases=3 conn=Delta model=2 kv=0.38 kw=0.3700995 pf=0.92 daily=RU1_DU status=variable vmaxpu=1.5 vminpu=0.92
New Load.BT_413706_M2 bus1=UC413706.1.2.3.4 phases=3 conn=Delta model=3 kv=0.38 kw=0.3700995 pf=0.92 daily=RU1_DU status=variable vmaxpu=1.5 vminpu=0.92
New Load.BT_433523_M1 bus1=UC433523.1.4 phases=1 conn=Wye model=2 kv=0.219393102 kw=0.1152995 pf=0.92 daily=RU6_DU status=variable vmaxpu=1.5 vminpu=0.92
New Load.BT_433523_M2 bus1=UC433523.1.4 phases=1 conn=Wye model=3 kv=0.219393102 kw=0.1152995 pf=0.92 daily=RU6_DU status=variable vmaxpu=1.5 vminpu=0.92
New Load.BT_438409_M1 bus1=UC438409.2.4 phases=1 conn=Wye model=2 kv=0.219393102 kw=0.0528255 pf=0.92 daily=RE1_DU status=variable vmaxpu=1.5 vminpu=0.92
New Load.BT_438409_M2 bus1=UC438409.2.4 phases=1 conn=Wye model=3 kv=0.219393102 kw=0.0528255 pf=0.92 daily=RE1_DU status=variable vmaxpu=1.5 vminpu=0.92
New Load.BT_IP934_M1 bus1=BT184721.1.4 phases=1 conn=Wye model=2 kv=0.219393102 kw=0.204713 pf=0.92 daily=IP1_DU status=variable vmaxpu=1.5 vminpu=0.92
New Load.BT_IP934_M2 bus1=BT184721.1.4 phases=1 conn=Wye model=3 kv=0.219393102 kw=0.204713 pf=0.92 daily=IP1_DU status=variable vmaxpu=1.5 vminpu=0.92
New Load.BT_IP935_M1 bus1=BT184711.1.4 phases=1 conn=Wye model=2 kv=0.219393102 kw=0.204713 pf=0.92 daily=IP1_DU status=variable vmaxpu=1.5 vminpu=0.92
New Load.BT_IP935_M2 bus1=BT184711.1.4 phases=1 conn=Wye model=3 kv=0.219393102 kw=0.204713 pf=0.92 daily=IP1_DU status=variable vmaxpu=1.5 vminpu=0.92
New Load.BT_IP936_M1 bus1=BT345781.1.4 phases=1 conn=Wye model=2 kv=0.219393102 kw=0.130187 pf=0.92 daily=IP1_DU status=variable vmaxpu=1.5 vminpu=0.92
New Load.BT_IP936_M2 bus1=BT345781.1.4 phases=1 conn=Wye model=3 kv=0.219393102 kw=0.130187 pf=0.92 daily=IP1_DU status=variable vmaxpu=1.5 vminpu=0.92
New Load.BT_433444_M1 bus1=UC433444.2.4 phases=1 conn=Wye model=2 kv=0.22 kw=0 pf=0.92 daily=RU6_DU status=variable vmaxpu=1.5 vminpu=0.92
New Load.BT_433444_M2 bus1=UC433444.2.4 phases=1 conn=Wye model=3 kv=0.22 kw=0 pf=0.92 daily=RU6_DU status=variable vmaxpu=1.5 vminpu=0.92
New Load.BT_413634_M1 bus1=UC413634.2.4 phases=1 conn=Wye model=2 kv=0.22 kw=0.434625 pf=0.92 daily=RU3_DU status=variable vmaxpu=1.5 vminpu=0.92
New Load.BT_413634_M2 bus1=UC413634.2.4 phases=1 conn=Wye model=3 kv=0.22 kw=0.434625 pf=0.92 daily=RU3_DU status=variable vmaxpu=1.5 vminpu=0.92
New Load.BT_413635_M1 bus1=UC413635.1.2.4 phases=1 conn=Delta model=2 kv=0.44 kw=0.023738 pf=0.92 daily=RU6_DU status=variable vmaxpu=1.5 vminpu=0.92
New Load.BT_413635_M2 bus1=UC413635.1.2.4 phases=1 conn=Delta model=3 kv=0.44 kw=0.023738 pf=0.92 daily=RU6_DU status=variable vmaxpu=1.5 vminpu=0.92
New Load.BT_413636_M1 bus1=UC413636.1.4 phases=1 conn=Wye model=2 kv=0.22 kw=0 pf=0.92 daily=RU5_DU status=variable vmaxpu=1.5 vminpu=0.92
...